*Heading
** Job name: 16CshapedRibs Model name: 16CshapedRibs
** Generated by: Abaqus/CAE 2020
*Preprint, echo=NO, model=NO, history=NO, contact=NO
**
** PARTS
**
*Part, name=Base
*End Part
**  
*Part, name=Hub
*Node
      1,   31.9380989,   -1.9894284,   22.2199993
      2,    31.752636,  -3.97116017,   22.2199993
      3,   31.4443283,  -5.93752813,   22.2199993
      4,   31.0143681,  -7.88092518,   22.2199993
      5,   30.4644203,  -9.79383183,   22.2199993
      6,   29.7966099,   -11.668849,   22.2199993
      7,   29.0135231,  -13.4987211,   22.2199993
      8,   28.1181889,  -15.2763691,   22.2199993
      9,   27.1140709,  -16.9949169,   22.2199993
     10,   26.0050526,  -18.6477127,   22.2199993
     11,   24.7954273,  -20.2283649,   22.2199993
     12,    23.489872,  -21.7307587,   22.2199993
     13,    22.093441,  -23.1490803,   22.2199993
     14,   20.6115341,  -24.4778404,   22.2199993
     15,   19.0498829,  -25.7119026,   22.2199993
     16,   17.4145336,   -26.846489,   22.2199993
     17,   15.7118111,  -27.8772125,   22.2199993
     18,   13.9483013,  -28.8000851,   22.2199993
     19,   12.1308289,  -29.6115341,   22.2199993
     20,   10.2664242,   -30.308424,   22.2199993
** ... 1192 like lines cut
*Element, type=R3D4
   1,  101,    1,  102,  202
   2,    1,    2,  103,  102
   3,    2,    3,  104,  103
   4,    3,    4,  105,  104
   5,    4,    5,  106,  105
   6,    5,    6,  107,  106
   7,    6,    7,  108,  107
   8,    7,    8,  109,  108
   9,    8,    9,  110,  109
  10,    9,   10,  111,  110
  11,   10,   11,  112,  111
  12,   11,   12,  113,  112
  13,   12,   13,  114,  113
  14,   13,   14,  115,  114
  15,   14,   15,  116,  115
  16,   15,   16,  117,  116
  17,   16,   17,  118,  117
  18,   17,   18,  119,  118
  19,   18,   19,  120,  119
  20,   19,   20,  121,  120
** ... 1091 like lines cut
*Node
   1213,           0.,           0.,         100.
*Nset, nset=Hub-RefPt_, internal
1213, 
*Elset, elset=Hub, generate
    1,  1111,     1
*End Part
**  
*Part, name=Rollers
*End Part
**  
*Part, name=rib
*End Part
**  
**
** ASSEMBLY
**
*Assembly, name=Assembly
**  
*Instance, name=rib-1-rad-1, part=rib
*Node
      1,   36.2650871,  -12.1270065,   -3.0672493
      2,   35.3790245,   1.91676629,   -3.6592989
      3,   31.4832077,   1.56122732,   -6.2623992
      4,   32.3692703,  -12.4825459,  -5.67035007
      5,   40.3254662,  -11.6885195, -0.354190975
      6,   39.2748375,   2.33883095,  -1.05619848
      7,   44.3852196,   -11.180769,    2.3584497
      8,   43.1706543,   2.82742143,   1.54690206
      9,   48.4442558,  -10.6037903,   5.07061052
     10,   47.0664673,   3.38253784,   4.15000248
     11,   52.5024796,  -9.95762062,   7.78222942
     12,   50.9622841,   4.00417995,   6.75310278
     13,   56.5598068,  -9.24230385,    10.493248
     14,   54.8580971,   4.69234753,   9.35620308
     15,   60.6161461,  -8.45788574,   13.2036076
     16,   58.7539139,   5.44704151,   11.9593039
     17,   64.6714172,  -7.60441685,   15.9132528
     18,   62.6497269,   6.26826096,   14.5624046
     19,   68.7255325,    -6.681952,   18.6221275
     20,   66.5455475,   7.15600586,   17.1655045
** ... 1236 like lines cut
*Element, type=S4R
 1,   1, 121, 675, 134
 2, 121, 122, 676, 675
 3, 122, 123, 677, 676
 4, 123, 124, 678, 677
 5, 124, 125, 679, 678
 6, 125, 126, 680, 679
 7, 126,   2, 127, 680
 8, 134, 675, 133,   4
 9, 675, 676, 132, 133
10, 676, 677, 131, 132
11, 677, 678, 130, 131
12, 678, 679, 129, 130
13, 679, 680, 128, 129
14, 680, 127,   3, 128
15,   2, 126, 681, 142
16, 126, 125, 682, 681
17, 125, 124, 683, 682
18, 124, 123, 684, 683
19, 123, 122, 685, 684
20, 122, 121, 686, 685
** ... 1072 like lines cut
*Nset, nset=AllRib, generate
    1,  1256,     1
*Elset, elset=AllRib, generate
    1,  1092,     1
** Section: Section-ribs
*Shell Section, elset=AllRib, material=Material-ribs
0.15, 5
*End Instance
**  
*Instance, name=Rollers-1, part=Rollers
          0.,          8.5,           0.
          0.,          8.5,           0., 0.992432517778647, 8.58682659260788, -0.086826592607882, 90.4352295036925
*Node
      1,   75.4619293,  -6.26047421,   21.7199993
      2,   75.4619293,  -6.26047421,           0.
      3,   57.7864685,   48.9328194,   21.7199993
      4,   57.7864685,   48.9328194,           0.
      5,   6.26047421,   75.4619293,   21.7199993
      6,   6.26047421,   75.4619293,           0.
      7,  -48.9328194,   57.7864685,   21.7199993
      8,  -48.9328194,   57.7864685,           0.
      9,  -75.4619293,   6.26047421,   21.7199993
     10,  -75.4619293,   6.26047421,           0.
     11,  -57.7864685,  -48.9328194,   21.7199993
     12,  -57.7864685,  -48.9328194,           0.
     13,  -6.26047421,  -75.4619293,   21.7199993
     14,  -6.26047421,  -75.4619293,           0.
     15,   48.9328194,  -57.7864685,   21.7199993
     16,   48.9328194,  -57.7864685,           0.
     17,   23.0941067,  -72.1135178,   21.7199993
     18,   23.0941067,  -72.1135178,           0.
     19,  -34.6619568,  -67.3219528,   21.7199993
     20,  -34.6619568,  -67.3219528,           0.
** ... 10636 like lines cut
*Element, type=R3D4
  1,    1,   33, 1185, 1221
  2,   33,   34, 1186, 1185
  3,   34,   35, 1187, 1186
  4,   35,   36, 1188, 1187
  5,   36,   37, 1189, 1188
  6,   37,   38, 1190, 1189
  7,   38,   39, 1191, 1190
  8,   39,   40, 1192, 1191
  9,   40,   41, 1193, 1192
 10,   41,   42, 1194, 1193
 11,   42,   43, 1195, 1194
 12,   43,   44, 1196, 1195
 13,   44,   45, 1197, 1196
 14,   45,   46, 1198, 1197
 15,   46,   47, 1199, 1198
 16,   47,   48, 1200, 1199
 17,   48,   49, 1201, 1200
 18,   49,   50, 1202, 1201
 19,   50,   51, 1203, 1202
 20,   51,   52, 1204, 1203
** ... 10044 like lines cut
*Node
  10657,           0.,           0.,           0.
*Nset, nset=Rollers-1-RefPt_, internal
10657, 
*Nset, nset=Set-Ref-Rollers
 10657,
*Elset, elset=_Surf-Rollers_SPOS, internal, generate
     1,  10064,      1
*Surface, type=ELEMENT, name=Surf-Rollers
_Surf-Rollers_SPOS, SPOS
*Elset, elset=Rollers-1, generate
     1,  10064,      1
*End Instance
**  
*Instance, name=Base-1, part=Base
          0.,           9.,           0.
          0.,           9.,           0., 1.00000001268805,           9.,           0., 89.9999992730282
*Node
      1,          75.,           0.,           0.
      2,        72.25,           0.,           0.
      3,         69.5,           0.,           0.
      4,        66.75,           0.,           0.
      5,          64.,           0.,           0.
      6,        61.25,           0.,           0.
      7,         58.5,           0.,           0.
      8,        55.75,           0.,           0.
      9,          53.,           0.,           0.
     10,        50.25,           0.,           0.
     11,         47.5,           0.,           0.
     12,        44.75,           0.,           0.
     13,          42.,           0.,           0.
     14,        39.25,           0.,           0.
     15,         36.5,           0.,           0.
     16,        33.75,           0.,           0.
     17,          31.,           0.,           0.
     18,        28.25,           0.,           0.
     19,         25.5,           0.,           0.
     20,   74.5891418,   -7.8396349,           0.
** ... 1120 like lines cut
*Element, type=R3D4
   1,    1,    2,   21,   20
   2,    2,    3,   22,   21
   3,    3,    4,   23,   22
   4,    4,    5,   24,   23
   5,    5,    6,   25,   24
   6,    6,    7,   26,   25
   7,    7,    8,   27,   26
   8,    8,    9,   28,   27
   9,    9,   10,   29,   28
  10,   10,   11,   30,   29
  11,   11,   12,   31,   30
  12,   12,   13,   32,   31
  13,   13,   14,   33,   32
  14,   14,   15,   34,   33
  15,   15,   16,   35,   34
  16,   16,   17,   36,   35
  17,   17,   18,   37,   36
  18,   18,   19,   38,   37
  19,   20,   21,   40,   39
  20,   21,   22,   41,   40
** ... 1060 like lines cut
*Node
   1141,           0.,           0.,           0.
*Nset, nset=Base-1-RefPt_, internal
1141, 
*Nset, nset=Set-Ref-Base
 1141,
*Elset, elset=_Surf-Base_SPOS, internal, generate
    1,  1080,     1
*Surface, type=ELEMENT, name=Surf-Base
_Surf-Base_SPOS, SPOS
*Elset, elset=Base-1, generate
    1,  1080,     1
*End Instance
**  
*Instance, name=Base-2, part=Base
          0.,       -13.22,           0.
          0.,       -13.22,           0., 1.00000001268805,       -13.22,           0., 89.9999992730282
*Node
      1,          75.,           0.,           0.
      2,        72.25,           0.,           0.
      3,         69.5,           0.,           0.
      4,        66.75,           0.,           0.
      5,          64.,           0.,           0.
      6,        61.25,           0.,           0.
      7,         58.5,           0.,           0.
      8,        55.75,           0.,           0.
      9,          53.,           0.,           0.
     10,        50.25,           0.,           0.
     11,         47.5,           0.,           0.
     12,        44.75,           0.,           0.
     13,          42.,           0.,           0.
     14,        39.25,           0.,           0.
     15,         36.5,           0.,           0.
     16,        33.75,           0.,           0.
     17,          31.,           0.,           0.
     18,        28.25,           0.,           0.
     19,         25.5,           0.,           0.
     20,   74.5891418,   -7.8396349,           0.
** ... 1120 like lines cut
*Element, type=R3D4
   1,    1,    2,   21,   20
   2,    2,    3,   22,   21
   3,    3,    4,   23,   22
   4,    4,    5,   24,   23
   5,    5,    6,   25,   24
   6,    6,    7,   26,   25
   7,    7,    8,   27,   26
   8,    8,    9,   28,   27
   9,    9,   10,   29,   28
  10,   10,   11,   30,   29
  11,   11,   12,   31,   30
  12,   12,   13,   32,   31
  13,   13,   14,   33,   32
  14,   14,   15,   34,   33
  15,   15,   16,   35,   34
  16,   16,   17,   36,   35
  17,   17,   18,   37,   36
  18,   18,   19,   38,   37
  19,   20,   21,   40,   39
  20,   21,   22,   41,   40
** ... 1060 like lines cut
*Node
   1141,           0.,           0.,           0.
*Nset, nset=Base-2-RefPt_, internal
1141, 
*Nset, nset=Set-Ref-Base
 1141,
*Elset, elset=_Surf-Base_SPOS, internal, generate
    1,  1080,     1
*Surface, type=ELEMENT, name=Surf-Base
_Surf-Base_SPOS, SPOS
*Elset, elset=Base-2, generate
    1,  1080,     1
*End Instance
**  
*Instance, name=Hub-1, part=Hub
          0.,       -13.22,           0.
          0.,       -13.22,           0., -1.00000001268805,       -13.22,           0., 89.9999992730282
*End Instance
**  
*Instance, name=rib-1-rad-1-rad-2, part=rib
          0.,           0.,           0.
          0.,           0.,           0.,           0., 1.00000001838141,           0., 22.5000004495572
*Node
      1,   36.2650871,  -12.1270065,   -3.0672493
      2,   35.3790245,   1.91676629,   -3.6592989
      3,   31.4832077,   1.56122732,   -6.2623992
      4,   32.3692703,  -12.4825459,  -5.67035007
      5,   40.3254662,  -11.6885195, -0.354190975
      6,   39.2748375,   2.33883095,  -1.05619848
      7,   44.3852196,   -11.180769,    2.3584497
      8,   43.1706543,   2.82742143,   1.54690206
      9,   48.4442558,  -10.6037903,   5.07061052
     10,   47.0664673,   3.38253784,   4.15000248
     11,   52.5024796,  -9.95762062,   7.78222942
     12,   50.9622841,   4.00417995,   6.75310278
     13,   56.5598068,  -9.24230385,    10.493248
     14,   54.8580971,   4.69234753,   9.35620308
     15,   60.6161461,  -8.45788574,   13.2036076
     16,   58.7539139,   5.44704151,   11.9593039
     17,   64.6714172,  -7.60441685,   15.9132528
     18,   62.6497269,   6.26826096,   14.5624046
     19,   68.7255325,    -6.681952,   18.6221275
     20,   66.5455475,   7.15600586,   17.1655045
** ... 1236 like lines cut
*Element, type=S4R
 1,   1, 121, 675, 134
 2, 121, 122, 676, 675
 3, 122, 123, 677, 676
 4, 123, 124, 678, 677
 5, 124, 125, 679, 678
 6, 125, 126, 680, 679
 7, 126,   2, 127, 680
 8, 134, 675, 133,   4
 9, 675, 676, 132, 133
10, 676, 677, 131, 132
11, 677, 678, 130, 131
12, 678, 679, 129, 130
13, 679, 680, 128, 129
14, 680, 127,   3, 128
15,   2, 126, 681, 142
16, 126, 125, 682, 681
17, 125, 124, 683, 682
18, 124, 123, 684, 683
19, 123, 122, 685, 684
20, 122, 121, 686, 685
** ... 1072 like lines cut
*Nset, nset=AllRib, generate
    1,  1256,     1
*Elset, elset=AllRib, generate
    1,  1092,     1
** Section: Section-ribs
*Shell Section, elset=AllRib, material=Material-ribs
0.15, 5
*End Instance
**  
*Instance, name=rib-1-rad-1-rad-3, part=rib
          0.,           0.,           0.
          0.,           0.,           0.,           0., 1.0000000139546,           0., 45.0000000171299
*Node
      1,   36.2650871,  -12.1270065,   -3.0672493
      2,   35.3790245,   1.91676629,   -3.6592989
      3,   31.4832077,   1.56122732,   -6.2623992
      4,   32.3692703,  -12.4825459,  -5.67035007
      5,   40.3254662,  -11.6885195, -0.354190975
      6,   39.2748375,   2.33883095,  -1.05619848
      7,   44.3852196,   -11.180769,    2.3584497
      8,   43.1706543,   2.82742143,   1.54690206
      9,   48.4442558,  -10.6037903,   5.07061052
     10,   47.0664673,   3.38253784,   4.15000248
     11,   52.5024796,  -9.95762062,   7.78222942
     12,   50.9622841,   4.00417995,   6.75310278
     13,   56.5598068,  -9.24230385,    10.493248
     14,   54.8580971,   4.69234753,   9.35620308
     15,   60.6161461,  -8.45788574,   13.2036076
     16,   58.7539139,   5.44704151,   11.9593039
     17,   64.6714172,  -7.60441685,   15.9132528
     18,   62.6497269,   6.26826096,   14.5624046
     19,   68.7255325,    -6.681952,   18.6221275
     20,   66.5455475,   7.15600586,   17.1655045
** ... 1236 like lines cut
*Element, type=S4R
 1,   1, 121, 675, 134
 2, 121, 122, 676, 675
 3, 122, 123, 677, 676
 4, 123, 124, 678, 677
 5, 124, 125, 679, 678
 6, 125, 126, 680, 679
 7, 126,   2, 127, 680
 8, 134, 675, 133,   4
 9, 675, 676, 132, 133
10, 676, 677, 131, 132
11, 677, 678, 130, 131
12, 678, 679, 129, 130
13, 679, 680, 128, 129
14, 680, 127,   3, 128
15,   2, 126, 681, 142
16, 126, 125, 682, 681
17, 125, 124, 683, 682
18, 124, 123, 684, 683
19, 123, 122, 685, 684
20, 122, 121, 686, 685
** ... 1072 like lines cut
*Nset, nset=AllRib, generate
    1,  1256,     1
*Elset, elset=AllRib, generate
    1,  1092,     1
** Section: Section-ribs
*Shell Section, elset=AllRib, material=Material-ribs
0.15, 5
*End Instance
**  
*Instance, name=rib-1-rad-1-rad-4, part=rib
          0.,           0.,           0.
          0.,           0.,           0.,           0., 0.999999992005326,           0., 67.5000026186089
*Node
      1,   36.2650871,  -12.1270065,   -3.0672493
      2,   35.3790245,   1.91676629,   -3.6592989
      3,   31.4832077,   1.56122732,   -6.2623992
      4,   32.3692703,  -12.4825459,  -5.67035007
      5,   40.3254662,  -11.6885195, -0.354190975
      6,   39.2748375,   2.33883095,  -1.05619848
      7,   44.3852196,   -11.180769,    2.3584497
      8,   43.1706543,   2.82742143,   1.54690206
      9,   48.4442558,  -10.6037903,   5.07061052
     10,   47.0664673,   3.38253784,   4.15000248
     11,   52.5024796,  -9.95762062,   7.78222942
     12,   50.9622841,   4.00417995,   6.75310278
     13,   56.5598068,  -9.24230385,    10.493248
     14,   54.8580971,   4.69234753,   9.35620308
     15,   60.6161461,  -8.45788574,   13.2036076
     16,   58.7539139,   5.44704151,   11.9593039
     17,   64.6714172,  -7.60441685,   15.9132528
     18,   62.6497269,   6.26826096,   14.5624046
     19,   68.7255325,    -6.681952,   18.6221275
     20,   66.5455475,   7.15600586,   17.1655045
** ... 1236 like lines cut
*Element, type=S4R
 1,   1, 121, 675, 134
 2, 121, 122, 676, 675
 3, 122, 123, 677, 676
 4, 123, 124, 678, 677
 5, 124, 125, 679, 678
 6, 125, 126, 680, 679
 7, 126,   2, 127, 680
 8, 134, 675, 133,   4
 9, 675, 676, 132, 133
10, 676, 677, 131, 132
11, 677, 678, 130, 131
12, 678, 679, 129, 130
13, 679, 680, 128, 129
14, 680, 127,   3, 128
15,   2, 126, 681, 142
16, 126, 125, 682, 681
17, 125, 124, 683, 682
18, 124, 123, 684, 683
19, 123, 122, 685, 684
20, 122, 121, 686, 685
** ... 1072 like lines cut
*Nset, nset=AllRib, generate
    1,  1256,     1
*Elset, elset=AllRib, generate
    1,  1092,     1
** Section: Section-ribs
*Shell Section, elset=AllRib, material=Material-ribs
0.15, 5
*End Instance
**  
*Instance, name=rib-1-rad-1-rad-5, part=rib
          0.,           0.,           0.
          0.,           0.,           0.,           0., 1.00000001268805,           0., 89.9999992730282
*Node
      1,   36.2650871,  -12.1270065,   -3.0672493
      2,   35.3790245,   1.91676629,   -3.6592989
      3,   31.4832077,   1.56122732,   -6.2623992
      4,   32.3692703,  -12.4825459,  -5.67035007
      5,   40.3254662,  -11.6885195, -0.354190975
      6,   39.2748375,   2.33883095,  -1.05619848
      7,   44.3852196,   -11.180769,    2.3584497
      8,   43.1706543,   2.82742143,   1.54690206
      9,   48.4442558,  -10.6037903,   5.07061052
     10,   47.0664673,   3.38253784,   4.15000248
     11,   52.5024796,  -9.95762062,   7.78222942
     12,   50.9622841,   4.00417995,   6.75310278
     13,   56.5598068,  -9.24230385,    10.493248
     14,   54.8580971,   4.69234753,   9.35620308
     15,   60.6161461,  -8.45788574,   13.2036076
     16,   58.7539139,   5.44704151,   11.9593039
     17,   64.6714172,  -7.60441685,   15.9132528
     18,   62.6497269,   6.26826096,   14.5624046
     19,   68.7255325,    -6.681952,   18.6221275
     20,   66.5455475,   7.15600586,   17.1655045
** ... 1236 like lines cut
*Element, type=S4R
 1,   1, 121, 675, 134
 2, 121, 122, 676, 675
 3, 122, 123, 677, 676
 4, 123, 124, 678, 677
 5, 124, 125, 679, 678
 6, 125, 126, 680, 679
 7, 126,   2, 127, 680
 8, 134, 675, 133,   4
 9, 675, 676, 132, 133
10, 676, 677, 131, 132
11, 677, 678, 130, 131
12, 678, 679, 129, 130
13, 679, 680, 128, 129
14, 680, 127,   3, 128
15,   2, 126, 681, 142
16, 126, 125, 682, 681
17, 125, 124, 683, 682
18, 124, 123, 684, 683
19, 123, 122, 685, 684
20, 122, 121, 686, 685
** ... 1072 like lines cut
*Nset, nset=AllRib, generate
    1,  1256,     1
*Elset, elset=AllRib, generate
    1,  1092,     1
** Section: Section-ribs
*Shell Section, elset=AllRib, material=Material-ribs
0.15, 5
*End Instance
**  
*Instance, name=rib-1-rad-1-rad-6, part=rib
          0.,           0.,           0.
          0.,           0.,           0.,           0., 0.999999992737754,           0., 112.499998189007
*Node
      1,   36.2650871,  -12.1270065,   -3.0672493
      2,   35.3790245,   1.91676629,   -3.6592989
      3,   31.4832077,   1.56122732,   -6.2623992
      4,   32.3692703,  -12.4825459,  -5.67035007
      5,   40.3254662,  -11.6885195, -0.354190975
      6,   39.2748375,   2.33883095,  -1.05619848
      7,   44.3852196,   -11.180769,    2.3584497
      8,   43.1706543,   2.82742143,   1.54690206
      9,   48.4442558,  -10.6037903,   5.07061052
     10,   47.0664673,   3.38253784,   4.15000248
     11,   52.5024796,  -9.95762062,   7.78222942
     12,   50.9622841,   4.00417995,   6.75310278
     13,   56.5598068,  -9.24230385,    10.493248
     14,   54.8580971,   4.69234753,   9.35620308
     15,   60.6161461,  -8.45788574,   13.2036076
     16,   58.7539139,   5.44704151,   11.9593039
     17,   64.6714172,  -7.60441685,   15.9132528
     18,   62.6497269,   6.26826096,   14.5624046
     19,   68.7255325,    -6.681952,   18.6221275
     20,   66.5455475,   7.15600586,   17.1655045
** ... 1236 like lines cut
*Element, type=S4R
 1,   1, 121, 675, 134
 2, 121, 122, 676, 675
 3, 122, 123, 677, 676
 4, 123, 124, 678, 677
 5, 124, 125, 679, 678
 6, 125, 126, 680, 679
 7, 126,   2, 127, 680
 8, 134, 675, 133,   4
 9, 675, 676, 132, 133
10, 676, 677, 131, 132
11, 677, 678, 130, 131
12, 678, 679, 129, 130
13, 679, 680, 128, 129
14, 680, 127,   3, 128
15,   2, 126, 681, 142
16, 126, 125, 682, 681
17, 125, 124, 683, 682
18, 124, 123, 684, 683
19, 123, 122, 685, 684
20, 122, 121, 686, 685
** ... 1072 like lines cut
*Nset, nset=AllRib, generate
    1,  1256,     1
*Elset, elset=AllRib, generate
    1,  1092,     1
** Section: Section-ribs
*Shell Section, elset=AllRib, material=Material-ribs
0.15, 5
*End Instance
**  
*Instance, name=rib-1-rad-1-rad-7, part=rib
          0.,           0.,           0.
          0.,           0.,           0.,           0., 0.999999990362471,           0., 134.999999807967
*Node
      1,   36.2650871,  -12.1270065,   -3.0672493
      2,   35.3790245,   1.91676629,   -3.6592989
      3,   31.4832077,   1.56122732,   -6.2623992
      4,   32.3692703,  -12.4825459,  -5.67035007
      5,   40.3254662,  -11.6885195, -0.354190975
      6,   39.2748375,   2.33883095,  -1.05619848
      7,   44.3852196,   -11.180769,    2.3584497
      8,   43.1706543,   2.82742143,   1.54690206
      9,   48.4442558,  -10.6037903,   5.07061052
     10,   47.0664673,   3.38253784,   4.15000248
     11,   52.5024796,  -9.95762062,   7.78222942
     12,   50.9622841,   4.00417995,   6.75310278
     13,   56.5598068,  -9.24230385,    10.493248
     14,   54.8580971,   4.69234753,   9.35620308
     15,   60.6161461,  -8.45788574,   13.2036076
     16,   58.7539139,   5.44704151,   11.9593039
     17,   64.6714172,  -7.60441685,   15.9132528
     18,   62.6497269,   6.26826096,   14.5624046
     19,   68.7255325,    -6.681952,   18.6221275
     20,   66.5455475,   7.15600586,   17.1655045
** ... 1236 like lines cut
*Element, type=S4R
 1,   1, 121, 675, 134
 2, 121, 122, 676, 675
 3, 122, 123, 677, 676
 4, 123, 124, 678, 677
 5, 124, 125, 679, 678
 6, 125, 126, 680, 679
 7, 126,   2, 127, 680
 8, 134, 675, 133,   4
 9, 675, 676, 132, 133
10, 676, 677, 131, 132
11, 677, 678, 130, 131
12, 678, 679, 129, 130
13, 679, 680, 128, 129
14, 680, 127,   3, 128
15,   2, 126, 681, 142
16, 126, 125, 682, 681
17, 125, 124, 683, 682
18, 124, 123, 684, 683
19, 123, 122, 685, 684
20, 122, 121, 686, 685
** ... 1072 like lines cut
*Nset, nset=AllRib, generate
    1,  1256,     1
*Elset, elset=AllRib, generate
    1,  1092,     1
** Section: Section-ribs
*Shell Section, elset=AllRib, material=Material-ribs
0.15, 5
*End Instance
**  
*Instance, name=rib-1-rad-1-rad-8, part=rib
          0.,           0.,           0.
          0.,           0.,           0.,           0., 1.00000000801626,           0., 157.499998971644
*Node
      1,   36.2650871,  -12.1270065,   -3.0672493
      2,   35.3790245,   1.91676629,   -3.6592989
      3,   31.4832077,   1.56122732,   -6.2623992
      4,   32.3692703,  -12.4825459,  -5.67035007
      5,   40.3254662,  -11.6885195, -0.354190975
      6,   39.2748375,   2.33883095,  -1.05619848
      7,   44.3852196,   -11.180769,    2.3584497
      8,   43.1706543,   2.82742143,   1.54690206
      9,   48.4442558,  -10.6037903,   5.07061052
     10,   47.0664673,   3.38253784,   4.15000248
     11,   52.5024796,  -9.95762062,   7.78222942
     12,   50.9622841,   4.00417995,   6.75310278
     13,   56.5598068,  -9.24230385,    10.493248
     14,   54.8580971,   4.69234753,   9.35620308
     15,   60.6161461,  -8.45788574,   13.2036076
     16,   58.7539139,   5.44704151,   11.9593039
     17,   64.6714172,  -7.60441685,   15.9132528
     18,   62.6497269,   6.26826096,   14.5624046
     19,   68.7255325,    -6.681952,   18.6221275
     20,   66.5455475,   7.15600586,   17.1655045
** ... 1236 like lines cut
*Element, type=S4R
 1,   1, 121, 675, 134
 2, 121, 122, 676, 675
 3, 122, 123, 677, 676
 4, 123, 124, 678, 677
 5, 124, 125, 679, 678
 6, 125, 126, 680, 679
 7, 126,   2, 127, 680
 8, 134, 675, 133,   4
 9, 675, 676, 132, 133
10, 676, 677, 131, 132
11, 677, 678, 130, 131
12, 678, 679, 129, 130
13, 679, 680, 128, 129
14, 680, 127,   3, 128
15,   2, 126, 681, 142
16, 126, 125, 682, 681
17, 125, 124, 683, 682
18, 124, 123, 684, 683
19, 123, 122, 685, 684
20, 122, 121, 686, 685
** ... 1072 like lines cut
*Nset, nset=AllRib, generate
    1,  1256,     1
*Elset, elset=AllRib, generate
    1,  1092,     1
** Section: Section-ribs
*Shell Section, elset=AllRib, material=Material-ribs
0.15, 5
*End Instance
**  
*Instance, name=rib-1-rad-1-rad-9, part=rib
          0.,           0.,           0.
          0.,           0.,           0.,           0.,           1.,           0.,         180.
*Node
      1,   36.2650871,  -12.1270065,   -3.0672493
      2,   35.3790245,   1.91676629,   -3.6592989
      3,   31.4832077,   1.56122732,   -6.2623992
      4,   32.3692703,  -12.4825459,  -5.67035007
      5,   40.3254662,  -11.6885195, -0.354190975
      6,   39.2748375,   2.33883095,  -1.05619848
      7,   44.3852196,   -11.180769,    2.3584497
      8,   43.1706543,   2.82742143,   1.54690206
      9,   48.4442558,  -10.6037903,   5.07061052
     10,   47.0664673,   3.38253784,   4.15000248
     11,   52.5024796,  -9.95762062,   7.78222942
     12,   50.9622841,   4.00417995,   6.75310278
     13,   56.5598068,  -9.24230385,    10.493248
     14,   54.8580971,   4.69234753,   9.35620308
     15,   60.6161461,  -8.45788574,   13.2036076
     16,   58.7539139,   5.44704151,   11.9593039
     17,   64.6714172,  -7.60441685,   15.9132528
     18,   62.6497269,   6.26826096,   14.5624046
     19,   68.7255325,    -6.681952,   18.6221275
     20,   66.5455475,   7.15600586,   17.1655045
** ... 1236 like lines cut
*Element, type=S4R
 1,   1, 121, 675, 134
 2, 121, 122, 676, 675
 3, 122, 123, 677, 676
 4, 123, 124, 678, 677
 5, 124, 125, 679, 678
 6, 125, 126, 680, 679
 7, 126,   2, 127, 680
 8, 134, 675, 133,   4
 9, 675, 676, 132, 133
10, 676, 677, 131, 132
11, 677, 678, 130, 131
12, 678, 679, 129, 130
13, 679, 680, 128, 129
14, 680, 127,   3, 128
15,   2, 126, 681, 142
16, 126, 125, 682, 681
17, 125, 124, 683, 682
18, 124, 123, 684, 683
19, 123, 122, 685, 684
20, 122, 121, 686, 685
** ... 1072 like lines cut
*Nset, nset=AllRib, generate
    1,  1256,     1
*Elset, elset=AllRib, generate
    1,  1092,     1
** Section: Section-ribs
*Shell Section, elset=AllRib, material=Material-ribs
0.15, 5
*End Instance
**  
*Instance, name=rib-1-rad-1-rad-10, part=rib
          0.,           0.,           0.
          0.,           0.,           0.,           0., 1.00000000801626,           0., 202.500001028356
*Node
      1,   36.2650871,  -12.1270065,   -3.0672493
      2,   35.3790245,   1.91676629,   -3.6592989
      3,   31.4832077,   1.56122732,   -6.2623992
      4,   32.3692703,  -12.4825459,  -5.67035007
      5,   40.3254662,  -11.6885195, -0.354190975
      6,   39.2748375,   2.33883095,  -1.05619848
      7,   44.3852196,   -11.180769,    2.3584497
      8,   43.1706543,   2.82742143,   1.54690206
      9,   48.4442558,  -10.6037903,   5.07061052
     10,   47.0664673,   3.38253784,   4.15000248
     11,   52.5024796,  -9.95762062,   7.78222942
     12,   50.9622841,   4.00417995,   6.75310278
     13,   56.5598068,  -9.24230385,    10.493248
     14,   54.8580971,   4.69234753,   9.35620308
     15,   60.6161461,  -8.45788574,   13.2036076
     16,   58.7539139,   5.44704151,   11.9593039
     17,   64.6714172,  -7.60441685,   15.9132528
     18,   62.6497269,   6.26826096,   14.5624046
     19,   68.7255325,    -6.681952,   18.6221275
     20,   66.5455475,   7.15600586,   17.1655045
** ... 1236 like lines cut
*Element, type=S4R
 1,   1, 121, 675, 134
 2, 121, 122, 676, 675
 3, 122, 123, 677, 676
 4, 123, 124, 678, 677
 5, 124, 125, 679, 678
 6, 125, 126, 680, 679
 7, 126,   2, 127, 680
 8, 134, 675, 133,   4
 9, 675, 676, 132, 133
10, 676, 677, 131, 132
11, 677, 678, 130, 131
12, 678, 679, 129, 130
13, 679, 680, 128, 129
14, 680, 127,   3, 128
15,   2, 126, 681, 142
16, 126, 125, 682, 681
17, 125, 124, 683, 682
18, 124, 123, 684, 683
19, 123, 122, 685, 684
20, 122, 121, 686, 685
** ... 1072 like lines cut
*Nset, nset=AllRib, generate
    1,  1256,     1
*Elset, elset=AllRib, generate
    1,  1092,     1
** Section: Section-ribs
*Shell Section, elset=AllRib, material=Material-ribs
0.15, 5
*End Instance
**  
*Instance, name=rib-1-rad-1-rad-11, part=rib
          0.,           0.,           0.
          0.,           0.,           0.,           0., 0.999999990362471,           0., 225.000000192033
*Node
      1,   36.2650871,  -12.1270065,   -3.0672493
      2,   35.3790245,   1.91676629,   -3.6592989
      3,   31.4832077,   1.56122732,   -6.2623992
      4,   32.3692703,  -12.4825459,  -5.67035007
      5,   40.3254662,  -11.6885195, -0.354190975
      6,   39.2748375,   2.33883095,  -1.05619848
      7,   44.3852196,   -11.180769,    2.3584497
      8,   43.1706543,   2.82742143,   1.54690206
      9,   48.4442558,  -10.6037903,   5.07061052
     10,   47.0664673,   3.38253784,   4.15000248
     11,   52.5024796,  -9.95762062,   7.78222942
     12,   50.9622841,   4.00417995,   6.75310278
     13,   56.5598068,  -9.24230385,    10.493248
     14,   54.8580971,   4.69234753,   9.35620308
     15,   60.6161461,  -8.45788574,   13.2036076
     16,   58.7539139,   5.44704151,   11.9593039
     17,   64.6714172,  -7.60441685,   15.9132528
     18,   62.6497269,   6.26826096,   14.5624046
     19,   68.7255325,    -6.681952,   18.6221275
     20,   66.5455475,   7.15600586,   17.1655045
** ... 1236 like lines cut
*Element, type=S4R
 1,   1, 121, 675, 134
 2, 121, 122, 676, 675
 3, 122, 123, 677, 676
 4, 123, 124, 678, 677
 5, 124, 125, 679, 678
 6, 125, 126, 680, 679
 7, 126,   2, 127, 680
 8, 134, 675, 133,   4
 9, 675, 676, 132, 133
10, 676, 677, 131, 132
11, 677, 678, 130, 131
12, 678, 679, 129, 130
13, 679, 680, 128, 129
14, 680, 127,   3, 128
15,   2, 126, 681, 142
16, 126, 125, 682, 681
17, 125, 124, 683, 682
18, 124, 123, 684, 683
19, 123, 122, 685, 684
20, 122, 121, 686, 685
** ... 1072 like lines cut
*Nset, nset=AllRib, generate
    1,  1256,     1
*Elset, elset=AllRib, generate
    1,  1092,     1
** Section: Section-ribs
*Shell Section, elset=AllRib, material=Material-ribs
0.15, 5
*End Instance
**  
*Instance, name=rib-1-rad-1-rad-12, part=rib
          0.,           0.,           0.
          0.,           0.,           0.,           0., -0.999999992737754,           0., 112.499998189007
*Node
      1,   36.2650871,  -12.1270065,   -3.0672493
      2,   35.3790245,   1.91676629,   -3.6592989
      3,   31.4832077,   1.56122732,   -6.2623992
      4,   32.3692703,  -12.4825459,  -5.67035007
      5,   40.3254662,  -11.6885195, -0.354190975
      6,   39.2748375,   2.33883095,  -1.05619848
      7,   44.3852196,   -11.180769,    2.3584497
      8,   43.1706543,   2.82742143,   1.54690206
      9,   48.4442558,  -10.6037903,   5.07061052
     10,   47.0664673,   3.38253784,   4.15000248
     11,   52.5024796,  -9.95762062,   7.78222942
     12,   50.9622841,   4.00417995,   6.75310278
     13,   56.5598068,  -9.24230385,    10.493248
     14,   54.8580971,   4.69234753,   9.35620308
     15,   60.6161461,  -8.45788574,   13.2036076
     16,   58.7539139,   5.44704151,   11.9593039
     17,   64.6714172,  -7.60441685,   15.9132528
     18,   62.6497269,   6.26826096,   14.5624046
     19,   68.7255325,    -6.681952,   18.6221275
     20,   66.5455475,   7.15600586,   17.1655045
** ... 1236 like lines cut
*Element, type=S4R
 1,   1, 121, 675, 134
 2, 121, 122, 676, 675
 3, 122, 123, 677, 676
 4, 123, 124, 678, 677
 5, 124, 125, 679, 678
 6, 125, 126, 680, 679
 7, 126,   2, 127, 680
 8, 134, 675, 133,   4
 9, 675, 676, 132, 133
10, 676, 677, 131, 132
11, 677, 678, 130, 131
12, 678, 679, 129, 130
13, 679, 680, 128, 129
14, 680, 127,   3, 128
15,   2, 126, 681, 142
16, 126, 125, 682, 681
17, 125, 124, 683, 682
18, 124, 123, 684, 683
19, 123, 122, 685, 684
20, 122, 121, 686, 685
** ... 1072 like lines cut
*Nset, nset=AllRib, generate
    1,  1256,     1
*Elset, elset=AllRib, generate
    1,  1092,     1
** Section: Section-ribs
*Shell Section, elset=AllRib, material=Material-ribs
0.15, 5
*End Instance
**  
*Instance, name=rib-1-rad-1-rad-13, part=rib
          0.,           0.,           0.
          0.,           0.,           0.,           0., -1.00000001268805,           0., 89.9999992730282
*Node
      1,   36.2650871,  -12.1270065,   -3.0672493
      2,   35.3790245,   1.91676629,   -3.6592989
      3,   31.4832077,   1.56122732,   -6.2623992
      4,   32.3692703,  -12.4825459,  -5.67035007
      5,   40.3254662,  -11.6885195, -0.354190975
      6,   39.2748375,   2.33883095,  -1.05619848
      7,   44.3852196,   -11.180769,    2.3584497
      8,   43.1706543,   2.82742143,   1.54690206
      9,   48.4442558,  -10.6037903,   5.07061052
     10,   47.0664673,   3.38253784,   4.15000248
     11,   52.5024796,  -9.95762062,   7.78222942
     12,   50.9622841,   4.00417995,   6.75310278
     13,   56.5598068,  -9.24230385,    10.493248
     14,   54.8580971,   4.69234753,   9.35620308
     15,   60.6161461,  -8.45788574,   13.2036076
     16,   58.7539139,   5.44704151,   11.9593039
     17,   64.6714172,  -7.60441685,   15.9132528
     18,   62.6497269,   6.26826096,   14.5624046
     19,   68.7255325,    -6.681952,   18.6221275
     20,   66.5455475,   7.15600586,   17.1655045
** ... 1236 like lines cut
*Element, type=S4R
 1,   1, 121, 675, 134
 2, 121, 122, 676, 675
 3, 122, 123, 677, 676
 4, 123, 124, 678, 677
 5, 124, 125, 679, 678
 6, 125, 126, 680, 679
 7, 126,   2, 127, 680
 8, 134, 675, 133,   4
 9, 675, 676, 132, 133
10, 676, 677, 131, 132
11, 677, 678, 130, 131
12, 678, 679, 129, 130
13, 679, 680, 128, 129
14, 680, 127,   3, 128
15,   2, 126, 681, 142
16, 126, 125, 682, 681
17, 125, 124, 683, 682
18, 124, 123, 684, 683
19, 123, 122, 685, 684
20, 122, 121, 686, 685
** ... 1072 like lines cut
*Nset, nset=AllRib, generate
    1,  1256,     1
*Elset, elset=AllRib, generate
    1,  1092,     1
** Section: Section-ribs
*Shell Section, elset=AllRib, material=Material-ribs
0.15, 5
*End Instance
**  
*Instance, name=rib-1-rad-1-rad-14, part=rib
          0.,           0.,           0.
          0.,           0.,           0.,           0., -0.999999992005326,           0., 67.5000026186089
*Node
      1,   36.2650871,  -12.1270065,   -3.0672493
      2,   35.3790245,   1.91676629,   -3.6592989
      3,   31.4832077,   1.56122732,   -6.2623992
      4,   32.3692703,  -12.4825459,  -5.67035007
      5,   40.3254662,  -11.6885195, -0.354190975
      6,   39.2748375,   2.33883095,  -1.05619848
      7,   44.3852196,   -11.180769,    2.3584497
      8,   43.1706543,   2.82742143,   1.54690206
      9,   48.4442558,  -10.6037903,   5.07061052
     10,   47.0664673,   3.38253784,   4.15000248
     11,   52.5024796,  -9.95762062,   7.78222942
     12,   50.9622841,   4.00417995,   6.75310278
     13,   56.5598068,  -9.24230385,    10.493248
     14,   54.8580971,   4.69234753,   9.35620308
     15,   60.6161461,  -8.45788574,   13.2036076
     16,   58.7539139,   5.44704151,   11.9593039
     17,   64.6714172,  -7.60441685,   15.9132528
     18,   62.6497269,   6.26826096,   14.5624046
     19,   68.7255325,    -6.681952,   18.6221275
     20,   66.5455475,   7.15600586,   17.1655045
** ... 1236 like lines cut
*Element, type=S4R
 1,   1, 121, 675, 134
 2, 121, 122, 676, 675
 3, 122, 123, 677, 676
 4, 123, 124, 678, 677
 5, 124, 125, 679, 678
 6, 125, 126, 680, 679
 7, 126,   2, 127, 680
 8, 134, 675, 133,   4
 9, 675, 676, 132, 133
10, 676, 677, 131, 132
11, 677, 678, 130, 131
12, 678, 679, 129, 130
13, 679, 680, 128, 129
14, 680, 127,   3, 128
15,   2, 126, 681, 142
16, 126, 125, 682, 681
17, 125, 124, 683, 682
18, 124, 123, 684, 683
19, 123, 122, 685, 684
20, 122, 121, 686, 685
** ... 1072 like lines cut
*Nset, nset=AllRib, generate
    1,  1256,     1
*Elset, elset=AllRib, generate
    1,  1092,     1
** Section: Section-ribs
*Shell Section, elset=AllRib, material=Material-ribs
0.15, 5
*End Instance
**  
*Instance, name=rib-1-rad-1-rad-15, part=rib
          0.,           0.,           0.
          0.,           0.,           0.,           0., -1.0000000139546,           0., 45.0000000171299
*Node
      1,   36.2650871,  -12.1270065,   -3.0672493
      2,   35.3790245,   1.91676629,   -3.6592989
      3,   31.4832077,   1.56122732,   -6.2623992
      4,   32.3692703,  -12.4825459,  -5.67035007
      5,   40.3254662,  -11.6885195, -0.354190975
      6,   39.2748375,   2.33883095,  -1.05619848
      7,   44.3852196,   -11.180769,    2.3584497
      8,   43.1706543,   2.82742143,   1.54690206
      9,   48.4442558,  -10.6037903,   5.07061052
     10,   47.0664673,   3.38253784,   4.15000248
     11,   52.5024796,  -9.95762062,   7.78222942
     12,   50.9622841,   4.00417995,   6.75310278
     13,   56.5598068,  -9.24230385,    10.493248
     14,   54.8580971,   4.69234753,   9.35620308
     15,   60.6161461,  -8.45788574,   13.2036076
     16,   58.7539139,   5.44704151,   11.9593039
     17,   64.6714172,  -7.60441685,   15.9132528
     18,   62.6497269,   6.26826096,   14.5624046
     19,   68.7255325,    -6.681952,   18.6221275
     20,   66.5455475,   7.15600586,   17.1655045
** ... 1236 like lines cut
*Element, type=S4R
 1,   1, 121, 675, 134
 2, 121, 122, 676, 675
 3, 122, 123, 677, 676
 4, 123, 124, 678, 677
 5, 124, 125, 679, 678
 6, 125, 126, 680, 679
 7, 126,   2, 127, 680
 8, 134, 675, 133,   4
 9, 675, 676, 132, 133
10, 676, 677, 131, 132
11, 677, 678, 130, 131
12, 678, 679, 129, 130
13, 679, 680, 128, 129
14, 680, 127,   3, 128
15,   2, 126, 681, 142
16, 126, 125, 682, 681
17, 125, 124, 683, 682
18, 124, 123, 684, 683
19, 123, 122, 685, 684
20, 122, 121, 686, 685
** ... 1072 like lines cut
*Nset, nset=AllRib, generate
    1,  1256,     1
*Elset, elset=AllRib, generate
    1,  1092,     1
** Section: Section-ribs
*Shell Section, elset=AllRib, material=Material-ribs
0.15, 5
*End Instance
**  
*Instance, name=rib-1-rad-1-rad-16, part=rib
          0.,           0.,           0.
          0.,           0.,           0.,           0., -1.00000001838141,           0., 22.5000004495572
*Node
      1,   36.2650871,  -12.1270065,   -3.0672493
      2,   35.3790245,   1.91676629,   -3.6592989
      3,   31.4832077,   1.56122732,   -6.2623992
      4,   32.3692703,  -12.4825459,  -5.67035007
      5,   40.3254662,  -11.6885195, -0.354190975
      6,   39.2748375,   2.33883095,  -1.05619848
      7,   44.3852196,   -11.180769,    2.3584497
      8,   43.1706543,   2.82742143,   1.54690206
      9,   48.4442558,  -10.6037903,   5.07061052
     10,   47.0664673,   3.38253784,   4.15000248
     11,   52.5024796,  -9.95762062,   7.78222942
     12,   50.9622841,   4.00417995,   6.75310278
     13,   56.5598068,  -9.24230385,    10.493248
     14,   54.8580971,   4.69234753,   9.35620308
     15,   60.6161461,  -8.45788574,   13.2036076
     16,   58.7539139,   5.44704151,   11.9593039
     17,   64.6714172,  -7.60441685,   15.9132528
     18,   62.6497269,   6.26826096,   14.5624046
     19,   68.7255325,    -6.681952,   18.6221275
     20,   66.5455475,   7.15600586,   17.1655045
** ... 1236 like lines cut
*Element, type=S4R
 1,   1, 121, 675, 134
 2, 121, 122, 676, 675
 3, 122, 123, 677, 676
 4, 123, 124, 678, 677
 5, 124, 125, 679, 678
 6, 125, 126, 680, 679
 7, 126,   2, 127, 680
 8, 134, 675, 133,   4
 9, 675, 676, 132, 133
10, 676, 677, 131, 132
11, 677, 678, 130, 131
12, 678, 679, 129, 130
13, 679, 680, 128, 129
14, 680, 127,   3, 128
15,   2, 126, 681, 142
16, 126, 125, 682, 681
17, 125, 124, 683, 682
18, 124, 123, 684, 683
19, 123, 122, 685, 684
20, 122, 121, 686, 685
** ... 1072 like lines cut
*Nset, nset=AllRib, generate
    1,  1256,     1
*Elset, elset=AllRib, generate
    1,  1092,     1
** Section: Section-ribs
*Shell Section, elset=AllRib, material=Material-ribs
0.15, 5
*End Instance
**  
*Node
      1,           0.,           0.,           0.
*Nset, nset=Set-68
 1,
*Nset, nset=Set-69, instance=Base-1
 1141,
*Nset, nset=Set-69, instance=Base-2
 1141,
*Nset, nset=Set-70, instance=Rollers-1
 10657,
*Nset, nset=Set-77, instance=Rollers-1
 10657,
*Nset, nset=Set-78
 1,
*Nset, nset=Set-79, instance=Hub-1
 1213,
*Nset, nset=Set-80, instance=Base-1
 1141,
*Nset, nset=Set-80, instance=Base-2
 1141,
*Nset, nset=m_Set-69
 1,
*Nset, nset=m_Set-75
 1,
*Nset, nset=s_Set-69, instance=rib-1-rad-1
   3,   4, 128, 129, 130, 131, 132, 133
*Elset, elset=s_Set-69, instance=rib-1-rad-1, generate
  8,  14,   1
*Nset, nset=s_Set-75, instance=rib-1-rad-1
   3,   4, 128, 129, 130, 131, 132, 133
*Elset, elset=s_Set-75, instance=rib-1-rad-1, generate
  8,  14,   1
*Nset, nset=_PickedSet219, internal, instance=rib-1-rad-1
   3,   4, 128, 129, 130, 131, 132, 133
*Nset, nset=_PickedSet219, internal, instance=rib-1-rad-1-rad-2
   3,   4, 128, 129, 130, 131, 132, 133
*Nset, nset=_PickedSet219, internal, instance=rib-1-rad-1-rad-4
   3,   4, 128, 129, 130, 131, 132, 133
*Nset, nset=_PickedSet219, internal, instance=rib-1-rad-1-rad-8
   3,   4, 128, 129, 130, 131, 132, 133
*Nset, nset=_PickedSet219, internal, instance=rib-1-rad-1-rad-12
   3,   4, 128, 129, 130, 131, 132, 133
*Nset, nset=_PickedSet219, internal, instance=rib-1-rad-1-rad-16
   3,   4, 128, 129, 130, 131, 132, 133
*Nset, nset=_PickedSet219, internal, instance=rib-1-rad-1-rad-6
   3,   4, 128, 129, 130, 131, 132, 133
*Nset, nset=_PickedSet219, internal, instance=rib-1-rad-1-rad-14
   3,   4, 128, 129, 130, 131, 132, 133
*Nset, nset=_PickedSet219, internal, instance=rib-1-rad-1-rad-10
   3,   4, 128, 129, 130, 131, 132, 133
*Nset, nset=_PickedSet219, internal, instance=rib-1-rad-1-rad-3
   3,   4, 128, 129, 130, 131, 132, 133
*Nset, nset=_PickedSet219, internal, instance=rib-1-rad-1-rad-5
   3,   4, 128, 129, 130, 131, 132, 133
*Nset, nset=_PickedSet219, internal, instance=rib-1-rad-1-rad-13
   3,   4, 128, 129, 130, 131, 132, 133
*Nset, nset=_PickedSet219, internal, instance=rib-1-rad-1-rad-9
   3,   4, 128, 129, 130, 131, 132, 133
*Nset, nset=_PickedSet219, internal, instance=rib-1-rad-1-rad-7
   3,   4, 128, 129, 130, 131, 132, 133
*Nset, nset=_PickedSet219, internal, instance=rib-1-rad-1-rad-15
   3,   4, 128, 129, 130, 131, 132, 133
*Nset, nset=_PickedSet219, internal, instance=rib-1-rad-1-rad-11
   3,   4, 128, 129, 130, 131, 132, 133
*Elset, elset=_PickedSet219, internal, instance=rib-1-rad-1, generate
  8,  14,   1
*Elset, elset=_PickedSet219, internal, instance=rib-1-rad-1-rad-2, generate
  8,  14,   1
*Elset, elset=_PickedSet219, internal, instance=rib-1-rad-1-rad-4, generate
  8,  14,   1
*Elset, elset=_PickedSet219, internal, instance=rib-1-rad-1-rad-8, generate
  8,  14,   1
*Elset, elset=_PickedSet219, internal, instance=rib-1-rad-1-rad-12, generate
  8,  14,   1
*Elset, elset=_PickedSet219, internal, instance=rib-1-rad-1-rad-16, generate
  8,  14,   1
*Elset, elset=_PickedSet219, internal, instance=rib-1-rad-1-rad-6, generate
  8,  14,   1
*Elset, elset=_PickedSet219, internal, instance=rib-1-rad-1-rad-14, generate
  8,  14,   1
*Elset, elset=_PickedSet219, internal, instance=rib-1-rad-1-rad-10, generate
  8,  14,   1
*Elset, elset=_PickedSet219, internal, instance=rib-1-rad-1-rad-3, generate
  8,  14,   1
*Elset, elset=_PickedSet219, internal, instance=rib-1-rad-1-rad-5, generate
  8,  14,   1
*Elset, elset=_PickedSet219, internal, instance=rib-1-rad-1-rad-13, generate
  8,  14,   1
*Elset, elset=_PickedSet219, internal, instance=rib-1-rad-1-rad-9, generate
  8,  14,   1
*Elset, elset=_PickedSet219, internal, instance=rib-1-rad-1-rad-7, generate
  8,  14,   1
*Elset, elset=_PickedSet219, internal, instance=rib-1-rad-1-rad-15, generate
  8,  14,   1
*Elset, elset=_PickedSet219, internal, instance=rib-1-rad-1-rad-11, generate
  8,  14,   1
*Elset, elset=_Surf-bottombase_SNEG, internal, instance=Base-2, generate
    1,  1080,     1
*Surface, type=ELEMENT, name=Surf-bottombase
_Surf-bottombase_SNEG, SNEG
*Elset, elset=_Surf-hub_SPOS, internal, instance=Hub-1, generate
    1,  1111,     1
*Surface, type=ELEMENT, name=Surf-hub
_Surf-hub_SPOS, SPOS
*Elset, elset=_Surf-rib_, internal, instance=rib-1-rad-1, generate
    1,  1092,     1
*Elset, elset=_Surf-rib_, internal, instance=rib-1-rad-1-rad-2, generate
    1,  1092,     1
*Elset, elset=_Surf-rib_, internal, instance=rib-1-rad-1-rad-4, generate
    1,  1092,     1
*Elset, elset=_Surf-rib_, internal, instance=rib-1-rad-1-rad-8, generate
    1,  1092,     1
*Elset, elset=_Surf-rib_, internal, instance=rib-1-rad-1-rad-12, generate
    1,  1092,     1
*Elset, elset=_Surf-rib_, internal, instance=rib-1-rad-1-rad-16, generate
    1,  1092,     1
*Elset, elset=_Surf-rib_, internal, instance=rib-1-rad-1-rad-6, generate
    1,  1092,     1
*Elset, elset=_Surf-rib_, internal, instance=rib-1-rad-1-rad-14, generate
    1,  1092,     1
*Elset, elset=_Surf-rib_, internal, instance=rib-1-rad-1-rad-10, generate
    1,  1092,     1
*Elset, elset=_Surf-rib_, internal, instance=rib-1-rad-1-rad-3, generate
    1,  1092,     1
*Elset, elset=_Surf-rib_, internal, instance=rib-1-rad-1-rad-5, generate
    1,  1092,     1
*Elset, elset=_Surf-rib_, internal, instance=rib-1-rad-1-rad-13, generate
    1,  1092,     1
*Elset, elset=_Surf-rib_, internal, instance=rib-1-rad-1-rad-9, generate
    1,  1092,     1
*Elset, elset=_Surf-rib_, internal, instance=rib-1-rad-1-rad-7, generate
    1,  1092,     1
*Elset, elset=_Surf-rib_, internal, instance=rib-1-rad-1-rad-15, generate
    1,  1092,     1
*Elset, elset=_Surf-rib_, internal, instance=rib-1-rad-1-rad-11, generate
    1,  1092,     1
*Surface, type=ELEMENT, name=Surf-rib
_Surf-rib_, 
*Elset, elset=_Surf-roller_SPOS, internal, instance=Rollers-1, generate
     1,  10064,      1
*Surface, type=ELEMENT, name=Surf-roller
_Surf-roller_SPOS, SPOS
*Elset, elset=_Surf-topbase_SPOS, internal, instance=Base-1, generate
    1,  1080,     1
*Surface, type=ELEMENT, name=Surf-topbase
_Surf-topbase_SPOS, SPOS
*Elset, elset=__PickedSurf220_SNEG, internal, instance=rib-1-rad-1, generate
    1,  1092,     1
*Elset, elset=__PickedSurf220_SNEG, internal, instance=rib-1-rad-1-rad-2, generate
    1,  1092,     1
*Elset, elset=__PickedSurf220_SNEG, internal, instance=rib-1-rad-1-rad-4, generate
    1,  1092,     1
*Elset, elset=__PickedSurf220_SNEG, internal, instance=rib-1-rad-1-rad-8, generate
    1,  1092,     1
*Elset, elset=__PickedSurf220_SNEG, internal, instance=rib-1-rad-1-rad-12, generate
    1,  1092,     1
*Elset, elset=__PickedSurf220_SNEG, internal, instance=rib-1-rad-1-rad-16, generate
    1,  1092,     1
*Elset, elset=__PickedSurf220_SNEG, internal, instance=rib-1-rad-1-rad-6, generate
    1,  1092,     1
*Elset, elset=__PickedSurf220_SNEG, internal, instance=rib-1-rad-1-rad-14, generate
    1,  1092,     1
*Elset, elset=__PickedSurf220_SNEG, internal, instance=rib-1-rad-1-rad-10, generate
    1,  1092,     1
*Elset, elset=__PickedSurf220_SNEG, internal, instance=rib-1-rad-1-rad-3, generate
    1,  1092,     1
*Elset, elset=__PickedSurf220_SNEG, internal, instance=rib-1-rad-1-rad-5, generate
    1,  1092,     1
*Elset, elset=__PickedSurf220_SNEG, internal, instance=rib-1-rad-1-rad-13, generate
    1,  1092,     1
*Elset, elset=__PickedSurf220_SNEG, internal, instance=rib-1-rad-1-rad-9, generate
    1,  1092,     1
*Elset, elset=__PickedSurf220_SNEG, internal, instance=rib-1-rad-1-rad-7, generate
    1,  1092,     1
*Elset, elset=__PickedSurf220_SNEG, internal, instance=rib-1-rad-1-rad-15, generate
    1,  1092,     1
*Elset, elset=__PickedSurf220_SNEG, internal, instance=rib-1-rad-1-rad-11, generate
    1,  1092,     1
*Surface, type=ELEMENT, name=_PickedSurf220, internal
__PickedSurf220_SNEG, SNEG
*Surface, type=NODE, name=_PickedSet219_CNS_, internal
_PickedSet219, 1.
*Rigid Body, ref node=Rollers-1.Rollers-1-RefPt_, elset=Rollers-1.Rollers-1
*Rigid Body, ref node=Base-1.Base-1-RefPt_, elset=Base-1.Base-1
*Rigid Body, ref node=Base-2.Base-2-RefPt_, elset=Base-2.Base-2
*Rigid Body, ref node=Hub-1.Hub-RefPt_, elset=Hub-1.Hub
** Constraint: Constraint-1
*MPC
BEAM, _PickedSet219, m_Set-75
*End Assembly
*Amplitude, name=Amp-1
             0.,              0.,              5.,              1.
** 
** MATERIALS
** 
*Material, name=Material-membrane
*Density
 2.6e-10,
*Elastic
 1.7, 0.3
*Expansion
 1e-05,
*Material, name=Material-ribs
*Density
 7.86e-09,
*Elastic
80000., 0.3
** 
** INTERACTION PROPERTIES
** 
*Surface Interaction, name=IntProp-1
*Friction
 0.4,
*Surface Behavior, pressure-overclosure=HARD
** 
** BOUNDARY CONDITIONS
** 
** Name: base Type: Displacement/Rotation
*Boundary
Set-80, 1, 1
Set-80, 2, 2
Set-80, 3, 3
Set-80, 4, 4
Set-80, 5, 5
Set-80, 6, 6
** Name: hub Type: Displacement/Rotation
*Boundary
Set-79, 1, 1
Set-79, 2, 2
Set-79, 3, 3
Set-79, 4, 4
Set-79, 5, 5
Set-79, 6, 6
** Name: ribend Type: Displacement/Rotation
*Boundary
Set-78, 1, 1
Set-78, 2, 2
Set-78, 3, 3
Set-78, 4, 4
Set-78, 5, 5
Set-78, 6, 6
** Name: rollor Type: Displacement/Rotation
*Boundary
Set-77, 1, 1
Set-77, 2, 2
Set-77, 3, 3
Set-77, 4, 4
Set-77, 5, 5
Set-77, 6, 6
** 
** INTERACTIONS
** 
** Interaction: Int-1
*Contact, op=NEW
*Contact Inclusions
Surf-rib , Surf-bottombase
Surf-rib , Surf-hub
Surf-rib , 
Surf-rib , Surf-topbase
Surf-rib , Surf-roller
*Contact Property Assignment
 ,  , IntProp-1
** ----------------------------------------------------------------
** 
** STEP: Step-1
** 
*Step, name=Step-1, nlgeom=YES
*Dynamic, Explicit
, 5.
*Bulk Viscosity
0.06, 1.2
** Mass Scaling: Semi-Automatic
**               Whole Model
*Variable Mass Scaling, dt=1e-06, type=below min, frequency=1
** 
** BOUNDARY CONDITIONS
** 
** Name: hub Type: Displacement/Rotation
*Boundary, amplitude=Amp-1
Set-79, 1, 1
Set-79, 2, 2
Set-79, 3, 3
Set-79, 4, 4
Set-79, 5, 5, 7.
Set-79, 6, 6
** Name: ribend Type: Displacement/Rotation
*Boundary, amplitude=Amp-1
Set-78, 1, 1
Set-78, 2, 2
Set-78, 3, 3
Set-78, 4, 4
Set-78, 5, 5, 7.
Set-78, 6, 6
** 
** LOADS
** 
** Name: Load-1   Type: Pressure
*Dsload
_PickedSurf220, VP, 1e-08
** 
** OUTPUT REQUESTS
** 
*Restart, write, number interval=1, time marks=NO
** 
** FIELD OUTPUT: F-Output-1
** 
*Output, field, variable=PRESELECT, time interval=0.02
** 
** HISTORY OUTPUT: H-Output-1
** 
*Output, history, variable=PRESELECT, time interval=0.02
*End Step
** ----------------------------------------------------------------
** 
** STEP: Step-2
** 
*Step, name=Step-2, nlgeom=YES
*Dynamic, Explicit
, 2.
*Bulk Viscosity
0.06, 1.2
** 
** BOUNDARY CONDITIONS
** 
** Name: hub Type: Displacement/Rotation
*Boundary, amplitude=Amp-1
Set-79, 5, 5
** Name: ribend Type: Displacement/Rotation
*Boundary, amplitude=Amp-1
Set-78, 5, 5
** 
** LOADS
** 
** Name: Load-1   Type: Pressure
*Dsload
_PickedSurf220, VP, 2e-08
** 
** INTERACTIONS
** 
** Interaction: Int-1
*Contact, op=NEW
*Contact Inclusions
Surf-rib , Surf-bottombase
Surf-rib , Surf-hub
Surf-rib , 
Surf-rib , Surf-topbase
*Contact Property Assignment
 ,  , IntProp-1
** 
** OUTPUT REQUESTS
** 
*Restart, write, number interval=1, time marks=NO
** 
** FIELD OUTPUT: F-Output-1
** 
*Output, field, variable=PRESELECT, time interval=0.01
** 
** HISTORY OUTPUT: H-Output-1
** 
*Output, history, variable=PRESELECT, time interval=0.01
*End Step
